case69_16m.m
function mpc = case69_16m
mpc.baseMVA = 100;
%% bus data
%bus_i type Pd      Qd  Gs Bs area   Vm     Va	baseKV	zone	Vmax	Vmin
% 3 =Ref, 2 =PV, 1 =PQ
mpc.bus = [
    1	2	0	0	0	0	1	1.045	0	100	1	1.06	0.94;
    2	2	0	0	0	0	1	0.98	0	100	1	1.06	0.94;
    3	2	0	0	0	0	1	0.983	0	100	1	1.06	0.94;
    4	2	0	0	0	0	1	0.997	0	100	1	1.06	0.94;
    5	2	0	0	0	0	1	1.011	0	100	1	1.06	0.94;
    6	2	0	0	0	0	1	1.05	0	100	1	1.06	0.94;
    7	2	0	0	0	0	1	1.063	0	100	1	1.06	0.94;
    8	2	0	0	0	0	1	1.03	0	100	1	1.06	0.94;
    9	2	0	0	0	0	1	1.025	0	100	1	1.06	0.94;
    10	2	0	0	0	0	2	1.01	0	100	2	1.06	0.94;
    11	2	0	0	0	0	2	1       0	100	2	1.06	0.94;
    12	2	0	0	0	0	2	1.0156	0	100	2	1.06	0.94;
    13	2	0	0	0	0	2	1.011	0	100	2	1.06	0.94;
    14	2	0	0	0	0	3	1       0	100	3	1.06	0.94;
    15	2	0	0	0	0	4	1       0	100	4	1.06	0.94;
    16	3	0	0	0	0	5	1       0	100	5	1.06	0.94;
    17	1	6000	300	0	0	2       1	0	100	2	1.06	0.94;
    18	1	2470	123	0	0	5       1	0	100	5	1.06	0.94;
    19	1	0	0	0	0	1	1       0	100	1	1.06	0.94;
    20	1	680	103	0	0	1	1       0	100	1	1.06	0.94;
    21	1	274	115	0	0	1	1       0	100	1	1.06	0.94;
    22	1	0	0	0	0	1	1       0	100	1	1.06	0.94;
    23	1	248	85	0	0	1	1       0	100	1	1.06	0.94;
    24	1	309	-92	0	0	1	1       0	100	1	1.06	0.94;
    25	1	224	47	0	0	1	1       0	100	1	1.06	0.94;
    26	1	139	17	0	0	1	1       0	100	1	1.06	0.94;
    27	1	281	76	0	0	1	1       0	100	1	1.06	0.94;
    28	1	206	28	0	0	1	1       0	100	1	1.06	0.94;
    29	1	284	27	0	0	1	1       0	100	1	1.06	0.94;
    30	1	0	0	0	0	2	1       0	100	2	1.06	0.94;
    31	1	0	0	0	0	2	1       0	100	2	1.06	0.94;
    32	1	0	0	0	0	2	1       0	100	2	1.06	0.94;
    33	1	112	0	0	0	2	1       0	100	2	1.06	0.94;
    34	1	0	0	0	0	2	1       0	100	2	1.06	0.94;
    35	1	0	0	0	0	2	1       0	100	2	1.06	0.94;
    36	1	102	-19.46	0	0	2       1	0	100	2	1.06	0.94;
    37	1	0	0	0	0	1	1       0	100	1	1.06	0.94;
    38	1	0	0	0	0	2	1       0	100	2	1.06	0.94;
    39	1	267	12.6	0	0	2       1	0	100	2	1.06	0.94;
    40	1	65.63	23.53	0	0       2	1	0	100	2	1.06	0.94;
    41	1	1000	250	0	0	3       1	0	100	3	1.06	0.94;
    42	1	1150	250	0	0	4       1	0	100	4	1.06	0.94;
    43	1	0	0	0	0	2	1       0	100	2	1.06	0.94;
    44	1	267.55	4.84	0	0       2	1	0	100	2	1.06	0.94;
    45	1	208	21	0	0	2	1       0	100	2	1.06	0.94;
    46	1	150.7	28.5	0	0   	2	1	0	100	2	1.06	0.94;
    47	1	203.12	32.59	0	0   	2	1	0	100	2	1.06	0.94;
    48	1	241.2	2.2	0	0	2       1	0	100	2	1.06	0.94;
    49	1	164	29	0	0	2	1       0	100	2	1.06	0.94;
    50	1	100	-147	0	0	2   	1	0	100	2	1.06	0.94;
    51	1	337	-122	0	0	2   	1	0	100	2	1.06	0.94;
    52	1	158	30	0	0	1	1   	0	100	1	1.06	0.94;
    53	1	252.7	118.56	0	0   	2	1	0	100	2	1.06	0.94;
    54	1	0	0	0	0	1	1   	0	100	1	1.06	0.94;
    55	1	322	2	0	0	1	1   	0	100	1	1.06	0.94;
    56	1	200	73.6	0	0	1   	1	0	100	1	1.06	0.94;
    57	1	0	0	0	0	1	1   	0	100	1	1.06	0.94;
    58	1	0	0	0	0	1	1   	0	100	1	1.06	0.94;
    59	1	234	84	0	0	1	1   	0	100	1	1.06	0.94;
    60	1	208.8	70.8	0	0   	1	1	0	100	1	1.06	0.94;
    61	1	104	125	0	0	2	1   	0	100	2	1.06	0.94;
    62	1	0	0	0	0	1	1   	0	100	1	1.06	0.94;
    63	1	0	0	0	0	1	1   	0	100	1	1.06	0.94;
    64	1	9	88	0	0	1	1   	0	100	1	1.06	0.94;
    65	1	0	0	0	0	1	1   	0	100	1	1.06	0.94;
    66	1	0	0	0	0	1	1   	0	100	1	1.06	0.94;
    67	1	320	153	0	0	1	1   	0	100	1	1.06	0.94;
    68	1	329	32	0	0	1	1       0	100	1	1.06	0.94;
    69  1   0   0   0   0   2   1       0   100 2   1.06    0.94;
    ];
%% generator data
%	bus	Pg	Qg	Qmax	Qmin	Vg	mBase	status	Pmax	Pmin	Pc1	Pc2	Qc1min	Qc1max	Qc2min	Qc2max	ramp_agc	ramp_10	ramp_30	ramp_q	apf
mpc.gen = [
    1	250	0	5000	-5000	1.045	100	1	5000	0	0	0	0	0	0	0	0	0	0	0	0
    2	545	0	5000	-5000	0.98	100	1	5000	0	0	0	0	0	0	0	0	0	0	0	0
    3	650	0	5000	-5000	0.983	100	1	5000	0	0	0	0	0	0	0	0	0	0	0	0
    4	632	0	5000	-5000	0.997	100	1	5000	0	0	0	0	0	0	0	0	0	0	0	0
    5	505	0	5000	-5000	1.011	100	1	5000	0	0	0	0	0	0	0	0	0	0	0	0
    6	700	0	5000	-5000	1.05	100	1	5000	0	0	0	0	0	0	0	0	0	0	0	0
    7	560	0	5000	-5000	1.063	100	1	5000	0	0	0	0	0	0	0	0	0	0	0	0
    8	540	0	5000	-5000	1.03	100	1	5000	0	0	0	0	0	0	0	0	0	0	0	0
    9	800	0	5000	-5000	1.025	100	1	5000	0	0	0	0	0	0	0	0	0	0	0	0
    10	500	0	5000	-5000	1.01	100	1	5000	0	0	0	0	0	0	0	0	0	0	0	0
    11	1000	0	5000	-5000	1	100	1	5000	0	0	0	0	0	0	0	0	0	0	0	0
    12	1350	0	5000	-5000	1.0156	100	1	5000	0	0	0	0	0	0	0	0	0	0	0	0
    13	3195	0	5000	-5000	1.011	100	1	5000	0	0	0	0	0	0	0	0	0	0	0	0
    14	1785	0	5000	-5000	1	100	1	5000	0	0	0	0	0	0	0	0	0	0	0	0
    15	1000	0	5000	-5000	1	100	1	5000	0	0	0	0	0	0	0	0	0	0	0	0
    16	4000	0	5000	-5000	1	100	1	5000	0	0	0	0	0	0	0	0	0	0	0	0
    ];
%% branch data
%	fbus	tbus	r	x	b	rateA	rateB	rateC	ratio	angle	status	angmin	angmax
mpc.branch= [
    54	1	0	0.0181	0	0	0	0	1.025	0	1	-360	360
    58	2	0	0.025	0	0	0	0	1.07	0	1	-360	360
    62	3	0	0.02	0	0	0	0	1.07	0	1	-360	360
    19	4	0.0007	0.0142	0	0	0	0	1.07	0	1	-360	360
    20	5	0.0009	0.018	0	0	0	0	1.009	0	1	-360	360
    22	6	0	0.0143	0	0	0	0	1.025	0	1	-360	360
    23	7	0.0005	0.0272	0	0	0	0	0	0	1	-360	360
    25	8	0.0006	0.0232	0	0	0	0	1.025	0	1	-360	360
    29	9	0.0008	0.0156	0	0	0	0	1.025	0	1	-360	360
    31	10	0	0.026	0	0	0	0	1.04	0	1	-360	360
    32	11	0	0.013	0	0	0	0	1.04	0	1	-360	360
    36	12	0	0.0075	0	0	0	0	1.04	0	1	-360	360
    17	13	0	0.0033	0	0	0	0	1.04	0	1	-360	360
    41	14	0	0.0015	0	0	0	0	1	0	1	-360	360
    42	15	0	0.0015	0	0	0	0	1	0	1	-360	360
    18	16	0	0.003	0	0	0	0	1	0	1	-360	360
    36	17	0.0005	0.0045	0.32	0	0	0	0	0	1	-360	360
    49	18	0.0076	0.1141	1.16	0	0	0	0	0	1	-360	360
    50	18	0.0012	0.0288	2.06	0	0	0	0	0	1	-360	360
    68	19	0.0016	0.0195	0.304	0	0	0	0	0	1	-360	360
    19	20	0.0007	0.0138	0	0	0	0	1.06	0	1	-360	360
    68	21	0.0008	0.0135	0.2548	0	0	0	0	0	1	-360	360
    21	22	0.0008	0.014	0.2565	0	0	0	0	0	1	-360	360
    22	23	0.0006	0.0096	0.1846	0	0	0	0	0	1	-360	360
    23	24	0.0022	0.035	0.361	0	0	0	0	0	1	-360	360
    68	24	0.0003	0.0059	0.068	0	0	0	0	0	1	-360	360
    54	25	0.007	0.0086	0.146	0	0	0	0	0	1	-360	360
    25	26	0.0032	0.0323	0.531	0	0	0	0	0	1	-360	360
    37	27	0.0013	0.0173	0.3216	0	0	0	0	0	1	-360	360
    26	27	0.0014	0.0147	0.2396	0	0	0	0	0	1	-360	360
    26	28	0.0043	0.0474	0.7802	0	0	0	0	0	1	-360	360
    26	29	0.0057	0.0625	1.029	0	0	0	0	0	1	-360	360
    28	29	0.0014	0.0151	0.249	0	0	0	0	0	1	-360	360
    53	30	0.0008	0.0074	0.48	0	0	0	0	0	1	-360	360
    61	30	0.00095*2	0.00915*2	0.58/2	0	0	0	0	0	1	-360	360
    61	30	0.00095*2	0.00915*2	0.58/2	0	0	0	0	0	1	-360	360
    30	31	0.0013	0.0187	0.333	0	0	0	0	0	1	-360	360
    53	31	0.0016	0.0163	0.25	0	0	0	0	0	1	-360	360
    30	32	0.0024	0.0288	0.488	0	0	0	0	0	1	-360	360
    32	33	0.0008	0.0099	0.168	0	0	0	0	0	1	-360	360
    33	34	0.0011	0.0157	0.202	0	0	0	0	0	1	-360	360
    35	34	0.0001	0.0074	0	0	0	0	0.946	0	1	-360	360
    34	36	0.0033	0.0111	1.45	0	0	0	0	0	1	-360	360
    61	36	0.0011*2	0.0098*2	0.68/2	0	0	0	0	0	1	-360	360
    61	36	0.0022	0.0196	0.34	0	0	0	0	0	1	-360	360
    68	37	0.0007	0.0089	0.1342	0	0	0	0	0	1	-360	360
    31	38	0.0011	0.0147	0.247	0	0	0	0	0	1	-360	360
    33	38	0.0036	0.0444	0.693	0	0	0	0	0	1	-360	360
    41	40	0.006	0.084	3.15	0	0	0	0	0	1	-360	360
    48	40	0.002	0.022	1.28	0	0	0	0	0	1	-360	360
    42	41	0.004	0.06	2.25	0	0	0	0	0	1	-360	360
    18	42	0.004	0.06	2.25	0	0	0	0	0	1	-360	360
    17	43	0.0005	0.0276	0	0	0	0	0	0	1	-360	360
    39	44	0	0.0411	0	0	0	0	0	0	1	-360	360
    43	44	0.0001	0.0011	0	0	0	0	0	0	1	-360	360
    35	45	0.0007	0.0175	1.39	0	0	0	0	0	1	-360	360
    39	45	0	0.0839	0	0	0	0	0	0	1	-360	360
    44	45	0.0025	0.073	0	0	0	0	0	0	1	-360	360
    38	46	0.0022	0.0284	0.43	0	0	0	0	0	1	-360	360
    53	47	0.0013	0.0188	1.31	0	0	0	0	0	1	-360	360
    47	48	0.00125*2	0.0134*2	0.8/2	0	0	0	0	0	1	-360	360
    47	48	0.00125*2	0.0134*2	0.8/2	0	0	0	0	0	1	-360	360
    46	49	0.0018	0.0274	0.27	0	0	0	0	0	1	-360	360
    45	51	0.0004	0.0105	0.72	0	0	0	0	0	1	-360	360
    50	51	0.0009	0.0221	1.62	0	0	0	0	0	1	-360	360
    37	52	0.0007	0.0082	0.1319	0	0	0	0	0	1	-360	360
    55	52	0.0011	0.0133	0.2138	0	0	0	0	0	1	-360	360
    53	54	0.0035	0.0411	0.6987	0	0	0	0	0	1	-360	360
    54	55	0.0013	0.0151	0.2572	0	0	0	0	0	1	-360	360
    55	56	0.0013	0.0213	0.2214	0	0	0	0	0	1	-360	360
    56	57	0.0008	0.0128	0.1342	0	0	0	0	0	1	-360	360
    57	58	0.0002	0.0026	0.0434	0	0	0	0	0	1	-360	360
    58	59	0.0006	0.0092	0.113	0	0	0	0	0	1	-360	360
    57	60	0.0008	0.0112	0.1476	0	0	0	0	0	1	-360	360
    59	60	0.0004	0.0046	0.078	0	0	0	0	0	1	-360	360
    60	61	0.0023	0.0363	0.3804	0	0	0	0	0	1	-360	360
    58	63	0.0007	0.0082	0.1389	0	0	0	0	0	1	-360	360
    62	63	0.0004	0.0043	0.0729	0	0	0	0	0	1	-360	360
    64	63	0.0016	0.0435	0	0	0	0	1.06	0	1	-360	360
    62	65	0.0004	0.0043	0.0729	0	0	0	0	0	1	-360	360
    64	65	0.0016	0.0435	0	0	0	0	1.06	0	1	-360	360
    56	66	0.0008	0.0129	0.1382	0	0	0	0	0	1	-360	360
    65	66	0.0009	0.0101	0.1723	0	0	0	0	0	1	-360	360
    66	67	0.0018	0.0217	0.366	0	0	0	0	0	1	-360	360
    67	68	0.0009	0.0094	0.171	0	0	0	0	0	1	-360	360
    53	27	0.032	0.32	0.41	0	0	0	1	0	1	-360	360
    69  18  0.0006  0.0144  1.0300  0   0   0   0   0   1   -360	360
    69  50  0.0006  0.0144  1.0300  0   0   0   0   0   0   -360	360
    ];
